821
Cu4
Cu    0.000000    0.000000    0.000000
Cu    0.000000    0.000000   20.484951
Cu  -10.242476   17.740488    0.000000
Cu  -10.242476   17.740488   20.484951
Cu   20.484951    0.000000    0.000000
Cu   20.484951    0.000000   20.484951
Cu   10.242476   17.740488    0.000000
Cu   10.242476   17.740488   20.484951
Cu    0.000000    0.000000    5.121238
Cu  -10.242476   17.740488    5.121238
Cu   20.484951    0.000000    5.121238
Cu   10.242476   17.740488    5.121238
Cu    0.000000    0.000000   10.242476
Cu  -10.242476   17.740488   10.242476
Cu   20.484951    0.000000   10.242476
Cu   10.242476   17.740488   10.242476
Cu    0.000000    0.000000   15.363713
Cu  -10.242476   17.740488   15.363713
Cu   20.484951    0.000000   15.363713
Cu   10.242476   17.740488   15.363713
Cu   -2.560619    4.435122    0.000000
Cu   -2.560619    4.435122   20.484951
Cu   17.924332    4.435122    0.000000
Cu   17.924332    4.435122   20.484951
Cu    7.681857   13.305366    0.000000
Cu    7.681857   13.305366   20.484951
Cu    5.121238    0.000000    0.000000
Cu    5.121238    0.000000   20.484951
Cu   -5.121238   17.740488    0.000000
Cu   -5.121238   17.740488   20.484951
Cu   -2.560619    4.435122    5.121238
Cu   17.924332    4.435122    5.121238
Cu    7.681857   13.305366    5.121238
Cu    5.121238    0.000000    5.121238
Cu   -5.121238   17.740488    5.121238
Cu   -2.560619    4.435122   10.242476
Cu   17.924332    4.435122   10.242476
Cu    7.681857   13.305366   10.242476
Cu    5.121238    0.000000   10.242476
Cu   -5.121238   17.740488   10.242476
Cu   -2.560619    4.435122   15.363713
Cu   17.924332    4.435122   15.363713
Cu    7.681857   13.305366   15.363713
Cu    5.121238    0.000000   15.363713
Cu   -5.121238   17.740488   15.363713
Cu   -5.121238    8.870244    0.000000
Cu   -5.121238    8.870244   20.484951
Cu   15.363713    8.870244    0.000000
Cu   15.363713    8.870244   20.484951
Cu    5.121238    8.870244    0.000000
Cu    5.121238    8.870244   20.484951
Cu   10.242476    0.000000    0.000000
Cu   10.242476    0.000000   20.484951
Cu    0.000000   17.740488    0.000000
Cu    0.000000   17.740488   20.484951
Cu   -5.121238    8.870244    5.121238
Cu   15.363713    8.870244    5.121238
Cu    5.121238    8.870244    5.121238
Cu   10.242476    0.000000    5.121238
Cu    0.000000   17.740488    5.121238
Cu   -5.121238    8.870244   10.242476
Cu   15.363713    8.870244   10.242476
Cu    5.121238    8.870244   10.242476
Cu   10.242476    0.000000   10.242476
Cu    0.000000   17.740488   10.242476
Cu   -5.121238    8.870244   15.363713
Cu   15.363713    8.870244   15.363713
Cu    5.121238    8.870244   15.363713
Cu   10.242476    0.000000   15.363713
Cu    0.000000   17.740488   15.363713
Cu   -7.681857   13.305366    0.000000
Cu   -7.681857   13.305366   20.484951
Cu   12.803094   13.305366    0.000000
Cu   12.803094   13.305366   20.484951
Cu    2.560619    4.435122    0.000000
Cu    2.560619    4.435122   20.484951
Cu   15.363713    0.000000    0.000000
Cu   15.363713    0.000000   20.484951
Cu    5.121238   17.740488    0.000000
Cu    5.121238   17.740488   20.484951
Cu   -7.681857   13.305366    5.121238
Cu   12.803094   13.305366    5.121238
Cu    2.560619    4.435122    5.121238
Cu   15.363713    0.000000    5.121238
Cu    5.121238   17.740488    5.121238
Cu   -7.681857   13.305366   10.242476
Cu   12.803094   13.305366   10.242476
Cu    2.560619    4.435122   10.242476
Cu   15.363713    0.000000   10.242476
Cu    5.121238   17.740488   10.242476
Cu   -7.681857   13.305366   15.363713
Cu   12.803094   13.305366   15.363713
Cu    2.560619    4.435122   15.363713
Cu   15.363713    0.000000   15.363713
Cu    5.121238   17.740488   15.363713
Cu    0.000000    8.870244    0.000000
Cu    0.000000    8.870244   20.484951
Cu    2.560619   13.305366    0.000000
Cu    2.560619   13.305366   20.484951
Cu   -2.560619   13.305366    0.000000
Cu   -2.560619   13.305366   20.484951
Cu    0.000000    8.870244    5.121238
Cu    2.560619   13.305366    5.121238
Cu   -2.560619   13.305366    5.121238
Cu    0.000000    8.870244   10.242476
Cu    2.560619   13.305366   10.242476
Cu   -2.560619   13.305366   10.242476
Cu    0.000000    8.870244   15.363713
Cu    2.560619   13.305366   15.363713
Cu   -2.560619   13.305366   15.363713
Cu    7.681857    4.435122    0.000000
Cu    7.681857    4.435122   20.484951
Cu   12.803094    4.435122    0.000000
Cu   12.803094    4.435122   20.484951
Cu   10.242476    8.870244    0.000000
Cu   10.242476    8.870244   20.484951
Cu    7.681857    4.435122    5.121238
Cu   12.803094    4.435122    5.121238
Cu   10.242476    8.870244    5.121238
Cu    7.681857    4.435122   10.242476
Cu   12.803094    4.435122   10.242476
Cu   10.242476    8.870244   10.242476
Cu    7.681857    4.435122   15.363713
Cu   12.803094    4.435122   15.363713
Cu   10.242476    8.870244   15.363713
Cu    0.640155    1.108780    2.560619
Cu   19.204642    0.000000    2.560619
Cu    8.962166   17.740488    2.560619
Cu   -9.602321   16.631707    2.560619
Cu   10.882630   16.631707    2.560619
Cu    0.640155    1.108780    7.681857
Cu   19.204642    0.000000    7.681857
Cu    8.962166   17.740488    7.681857
Cu   -9.602321   16.631707    7.681857
Cu   10.882630   16.631707    7.681857
Cu    0.640155    1.108780   12.803094
Cu   19.204642    0.000000   12.803094
Cu    8.962166   17.740488   12.803094
Cu   -9.602321   16.631707   12.803094
Cu   10.882630   16.631707   12.803094
Cu    0.640155    1.108780   17.924332
Cu   19.204642    0.000000   17.924332
Cu    8.962166   17.740488   17.924332
Cu   -9.602321   16.631707   17.924332
Cu   10.882630   16.631707   17.924332
Cu   -1.920464    5.543902    2.560619
Cu    6.401547   13.305366    2.560619
Cu   -4.481083   16.631707    2.560619
Cu   -1.920464    5.543902    7.681857
Cu    6.401547   13.305366    7.681857
Cu   -4.481083   16.631707    7.681857
Cu   -1.920464    5.543902   12.803094
Cu    6.401547   13.305366   12.803094
Cu   -4.481083   16.631707   12.803094
Cu   -1.920464    5.543902   17.924332
Cu    6.401547   13.305366   17.924332
Cu   -4.481083   16.631707   17.924332
Cu   -4.481083    9.979024    2.560619
Cu    3.840928    8.870244    2.560619
Cu    0.640155   16.631707    2.560619
Cu   -4.481083    9.979024    7.681857
Cu    3.840928    8.870244    7.681857
Cu    0.640155   16.631707    7.681857
Cu   -4.481083    9.979024   12.803094
Cu    3.840928    8.870244   12.803094
Cu    0.640155   16.631707   12.803094
Cu   -4.481083    9.979024   17.924332
Cu    3.840928    8.870244   17.924332
Cu    0.640155   16.631707   17.924332
Cu   -7.041702   14.414146    2.560619
Cu    1.280309    4.435122    2.560619
Cu    5.761392   16.631707    2.560619
Cu   -7.041702   14.414146    7.681857
Cu    1.280309    4.435122    7.681857
Cu    5.761392   16.631707    7.681857
Cu   -7.041702   14.414146   12.803094
Cu    1.280309    4.435122   12.803094
Cu    5.761392   16.631707   12.803094
Cu   -7.041702   14.414146   17.924332
Cu    1.280309    4.435122   17.924332
Cu    5.761392   16.631707   17.924332
Cu    5.761392    1.108780    2.560619
Cu   16.644023    4.435122    2.560619
Cu    8.322011   12.196585    2.560619
Cu    5.761392    1.108780    7.681857
Cu   16.644023    4.435122    7.681857
Cu    8.322011   12.196585    7.681857
Cu    5.761392    1.108780   12.803094
Cu   16.644023    4.435122   12.803094
Cu    8.322011   12.196585   12.803094
Cu    5.761392    1.108780   17.924332
Cu   16.644023    4.435122   17.924332
Cu    8.322011   12.196585   17.924332
Cu    3.200774    5.543902    2.560619
Cu   14.083404    0.000000    2.560619
Cu    3.840928   17.740488    2.560619
Cu   -7.041702   12.196585    2.560619
Cu   13.443249   12.196585    2.560619
Cu    3.200774    5.543902    7.681857
Cu   14.083404    0.000000    7.681857
Cu    3.840928   17.740488    7.681857
Cu   -7.041702   12.196585    7.681857
Cu   13.443249   12.196585    7.681857
Cu    3.200774    5.543902   12.803094
Cu   14.083404    0.000000   12.803094
Cu    3.840928   17.740488   12.803094
Cu   -7.041702   12.196585   12.803094
Cu   13.443249   12.196585   12.803094
Cu    3.200774    5.543902   17.924332
Cu   14.083404    0.000000   17.924332
Cu    3.840928   17.740488   17.924332
Cu   -7.041702   12.196585   17.924332
Cu   13.443249   12.196585   17.924332
Cu    0.640155    9.979024    2.560619
Cu    1.280309   13.305366    2.560619
Cu   -1.920464   12.196585    2.560619
Cu    0.640155    9.979024    7.681857
Cu    1.280309   13.305366    7.681857
Cu   -1.920464   12.196585    7.681857
Cu    0.640155    9.979024   12.803094
Cu    1.280309   13.305366   12.803094
Cu   -1.920464   12.196585   12.803094
Cu    0.640155    9.979024   17.924332
Cu    1.280309   13.305366   17.924332
Cu   -1.920464   12.196585   17.924332
Cu   -1.920464   14.414146    2.560619
Cu   -1.280309    8.870244    2.560619
Cu    3.200774   12.196585    2.560619
Cu   -1.920464   14.414146    7.681857
Cu   -1.280309    8.870244    7.681857
Cu    3.200774   12.196585    7.681857
Cu   -1.920464   14.414146   12.803094
Cu   -1.280309    8.870244   12.803094
Cu    3.200774   12.196585   12.803094
Cu   -1.920464   14.414146   17.924332
Cu   -1.280309    8.870244   17.924332
Cu    3.200774   12.196585   17.924332
Cu   10.882630    1.108780    2.560619
Cu   14.083404    8.870244    2.560619
Cu    5.761392    7.761463    2.560619
Cu   10.882630    1.108780    7.681857
Cu   14.083404    8.870244    7.681857
Cu    5.761392    7.761463    7.681857
Cu   10.882630    1.108780   12.803094
Cu   14.083404    8.870244   12.803094
Cu    5.761392    7.761463   12.803094
Cu   10.882630    1.108780   17.924332
Cu   14.083404    8.870244   17.924332
Cu    5.761392    7.761463   17.924332
Cu    8.322011    5.543902    2.560619
Cu   11.522785    4.435122    2.560619
Cu   10.882630    7.761463    2.560619
Cu    8.322011    5.543902    7.681857
Cu   11.522785    4.435122    7.681857
Cu   10.882630    7.761463    7.681857
Cu    8.322011    5.543902   12.803094
Cu   11.522785    4.435122   12.803094
Cu   10.882630    7.761463   12.803094
Cu    8.322011    5.543902   17.924332
Cu   11.522785    4.435122   17.924332
Cu   10.882630    7.761463   17.924332
Cu    5.761392    9.979024    2.560619
Cu    8.962166    0.000000    2.560619
Cu   -1.280309   17.740488    2.560619
Cu   -4.481083    7.761463    2.560619
Cu   16.003868    7.761463    2.560619
Cu    5.761392    9.979024    7.681857
Cu    8.962166    0.000000    7.681857
Cu   -1.280309   17.740488    7.681857
Cu   -4.481083    7.761463    7.681857
Cu   16.003868    7.761463    7.681857
Cu    5.761392    9.979024   12.803094
Cu    8.962166    0.000000   12.803094
Cu   -1.280309   17.740488   12.803094
Cu   -4.481083    7.761463   12.803094
Cu   16.003868    7.761463   12.803094
Cu    5.761392    9.979024   17.924332
Cu    8.962166    0.000000   17.924332
Cu   -1.280309   17.740488   17.924332
Cu   -4.481083    7.761463   17.924332
Cu   16.003868    7.761463   17.924332
Cu    3.200774   14.414146    2.560619
Cu   -3.840928   13.305366    2.560619
Cu    0.640155    7.761463    2.560619
Cu    3.200774   14.414146    7.681857
Cu   -3.840928   13.305366    7.681857
Cu    0.640155    7.761463    7.681857
Cu    3.200774   14.414146   12.803094
Cu   -3.840928   13.305366   12.803094
Cu    0.640155    7.761463   12.803094
Cu    3.200774   14.414146   17.924332
Cu   -3.840928   13.305366   17.924332
Cu    0.640155    7.761463   17.924332
Cu   16.003868    1.108780    2.560619
Cu   11.522785   13.305366    2.560619
Cu    3.200774    3.326341    2.560619
Cu   16.003868    1.108780    7.681857
Cu   11.522785   13.305366    7.681857
Cu    3.200774    3.326341    7.681857
Cu   16.003868    1.108780   12.803094
Cu   11.522785   13.305366   12.803094
Cu    3.200774    3.326341   12.803094
Cu   16.003868    1.108780   17.924332
Cu   11.522785   13.305366   17.924332
Cu    3.200774    3.326341   17.924332
Cu   13.443249    5.543902    2.560619
Cu    8.962166    8.870244    2.560619
Cu    8.322011    3.326341    2.560619
Cu   13.443249    5.543902    7.681857
Cu    8.962166    8.870244    7.681857
Cu    8.322011    3.326341    7.681857
Cu   13.443249    5.543902   12.803094
Cu    8.962166    8.870244   12.803094
Cu    8.322011    3.326341   12.803094
Cu   13.443249    5.543902   17.924332
Cu    8.962166    8.870244   17.924332
Cu    8.322011    3.326341   17.924332
Cu   10.882630    9.979024    2.560619
Cu    6.401547    4.435122    2.560619
Cu   13.443249    3.326341    2.560619
Cu   10.882630    9.979024    7.681857
Cu    6.401547    4.435122    7.681857
Cu   13.443249    3.326341    7.681857
Cu   10.882630    9.979024   12.803094
Cu    6.401547    4.435122   12.803094
Cu   13.443249    3.326341   12.803094
Cu   10.882630    9.979024   17.924332
Cu    6.401547    4.435122   17.924332
Cu   13.443249    3.326341   17.924332
Cu    8.322011   14.414146    2.560619
Cu    3.840928    0.000000    2.560619
Cu   -6.401547   17.740488    2.560619
Cu   -1.920464    3.326341    2.560619
Cu   18.564487    3.326341    2.560619
Cu    8.322011   14.414146    7.681857
Cu    3.840928    0.000000    7.681857
Cu   -6.401547   17.740488    7.681857
Cu   -1.920464    3.326341    7.681857
Cu   18.564487    3.326341    7.681857
Cu    8.322011   14.414146   12.803094
Cu    3.840928    0.000000   12.803094
Cu   -6.401547   17.740488   12.803094
Cu   -1.920464    3.326341   12.803094
Cu   18.564487    3.326341   12.803094
Cu    8.322011   14.414146   17.924332
Cu    3.840928    0.000000   17.924332
Cu   -6.401547   17.740488   17.924332
Cu   -1.920464    3.326341   17.924332
Cu   18.564487    3.326341   17.924332
Cu   -8.322011   16.631707    2.560619
Cu    0.000000    2.217561    2.560619
Cu    8.322011   16.631707    2.560619
Cu   -8.322011   16.631707    7.681857
Cu    0.000000    2.217561    7.681857
Cu    8.322011   16.631707    7.681857
Cu   -8.322011   16.631707   12.803094
Cu    0.000000    2.217561   12.803094
Cu    8.322011   16.631707   12.803094
Cu   -8.322011   16.631707   17.924332
Cu    0.000000    2.217561   17.924332
Cu    8.322011   16.631707   17.924332
Cu   -0.640155    3.326341    2.560619
Cu    7.681857   15.522927    2.560619
Cu   -7.041702   16.631707    2.560619
Cu   -0.640155    3.326341    7.681857
Cu    7.681857   15.522927    7.681857
Cu   -7.041702   16.631707    7.681857
Cu   -0.640155    3.326341   12.803094
Cu    7.681857   15.522927   12.803094
Cu   -7.041702   16.631707   12.803094
Cu   -0.640155    3.326341   17.924332
Cu    7.681857   15.522927   17.924332
Cu   -7.041702   16.631707   17.924332
Cu   -3.200774    7.761463    2.560619
Cu    5.121238   11.087805    2.560619
Cu   -1.920464   16.631707    2.560619
Cu   -3.200774    7.761463    7.681857
Cu    5.121238   11.087805    7.681857
Cu   -1.920464   16.631707    7.681857
Cu   -3.200774    7.761463   12.803094
Cu    5.121238   11.087805   12.803094
Cu   -1.920464   16.631707   12.803094
Cu   -3.200774    7.761463   17.924332
Cu    5.121238   11.087805   17.924332
Cu   -1.920464   16.631707   17.924332
Cu   -5.761392   12.196585    2.560619
Cu    2.560619    6.652683    2.560619
Cu    3.200774   16.631707    2.560619
Cu   -5.761392   12.196585    7.681857
Cu    2.560619    6.652683    7.681857
Cu    3.200774   16.631707    7.681857
Cu   -5.761392   12.196585   12.803094
Cu    2.560619    6.652683   12.803094
Cu    3.200774   16.631707   12.803094
Cu   -5.761392   12.196585   17.924332
Cu    2.560619    6.652683   17.924332
Cu    3.200774   16.631707   17.924332
Cu   -3.200774   16.631707    2.560619
Cu   -2.560619    6.652683    2.560619
Cu    5.761392   12.196585    2.560619
Cu   -3.200774   16.631707    7.681857
Cu   -2.560619    6.652683    7.681857
Cu    5.761392   12.196585    7.681857
Cu   -3.200774   16.631707   12.803094
Cu   -2.560619    6.652683   12.803094
Cu    5.761392   12.196585   12.803094
Cu   -3.200774   16.631707   17.924332
Cu   -2.560619    6.652683   17.924332
Cu    5.761392   12.196585   17.924332
Cu    4.481083    3.326341    2.560619
Cu   15.363713    2.217561    2.560619
Cu   10.882630   12.196585    2.560619
Cu    4.481083    3.326341    7.681857
Cu   15.363713    2.217561    7.681857
Cu   10.882630   12.196585    7.681857
Cu    4.481083    3.326341   12.803094
Cu   15.363713    2.217561   12.803094
Cu   10.882630   12.196585   12.803094
Cu    4.481083    3.326341   17.924332
Cu   15.363713    2.217561   17.924332
Cu   10.882630   12.196585   17.924332
Cu    1.920464    7.761463    2.560619
Cu    2.560619   15.522927    2.560619
Cu   -4.481083   12.196585    2.560619
Cu    1.920464    7.761463    7.681857
Cu    2.560619   15.522927    7.681857
Cu   -4.481083   12.196585    7.681857
Cu    1.920464    7.761463   12.803094
Cu    2.560619   15.522927   12.803094
Cu   -4.481083   12.196585   12.803094
Cu    1.920464    7.761463   17.924332
Cu    2.560619   15.522927   17.924332
Cu   -4.481083   12.196585   17.924332
Cu   -0.640155   12.196585    2.560619
Cu    0.000000   11.087805    2.560619
Cu    0.640155   12.196585    2.560619
Cu   -0.640155   12.196585    7.681857
Cu    0.000000   11.087805    7.681857
Cu    0.640155   12.196585    7.681857
Cu   -0.640155   12.196585   12.803094
Cu    0.000000   11.087805   12.803094
Cu    0.640155   12.196585   12.803094
Cu   -0.640155   12.196585   17.924332
Cu    0.000000   11.087805   17.924332
Cu    0.640155   12.196585   17.924332
Cu    1.920464   16.631707    2.560619
Cu   -5.121238   11.087805    2.560619
Cu    3.200774    7.761463    2.560619
Cu    1.920464   16.631707    7.681857
Cu   -5.121238   11.087805    7.681857
Cu    3.200774    7.761463    7.681857
Cu    1.920464   16.631707   12.803094
Cu   -5.121238   11.087805   12.803094
Cu    3.200774    7.761463   12.803094
Cu    1.920464   16.631707   17.924332
Cu   -5.121238   11.087805   17.924332
Cu    3.200774    7.761463   17.924332
Cu    9.602321    3.326341    2.560619
Cu   12.803094    6.652683    2.560619
Cu    8.322011    7.761463    2.560619
Cu    9.602321    3.326341    7.681857
Cu   12.803094    6.652683    7.681857
Cu    8.322011    7.761463    7.681857
Cu    9.602321    3.326341   12.803094
Cu   12.803094    6.652683   12.803094
Cu    8.322011    7.761463   12.803094
Cu    9.602321    3.326341   17.924332
Cu   12.803094    6.652683   17.924332
Cu    8.322011    7.761463   17.924332
Cu    7.041702    7.761463    2.560619
Cu   10.242476    2.217561    2.560619
Cu   13.443249    7.761463    2.560619
Cu    7.041702    7.761463    7.681857
Cu   10.242476    2.217561    7.681857
Cu   13.443249    7.761463    7.681857
Cu    7.041702    7.761463   12.803094
Cu   10.242476    2.217561   12.803094
Cu   13.443249    7.761463   12.803094
Cu    7.041702    7.761463   17.924332
Cu   10.242476    2.217561   17.924332
Cu   13.443249    7.761463   17.924332
Cu    4.481083   12.196585    2.560619
Cu   -2.560619   15.522927    2.560619
Cu   -1.920464    7.761463    2.560619
Cu    4.481083   12.196585    7.681857
Cu   -2.560619   15.522927    7.681857
Cu   -1.920464    7.761463    7.681857
Cu    4.481083   12.196585   12.803094
Cu   -2.560619   15.522927   12.803094
Cu   -1.920464    7.761463   12.803094
Cu    4.481083   12.196585   17.924332
Cu   -2.560619   15.522927   17.924332
Cu   -1.920464    7.761463   17.924332
Cu    7.041702   16.631707    2.560619
Cu   -7.681857   15.522927    2.560619
Cu    0.640155    3.326341    2.560619
Cu    7.041702   16.631707    7.681857
Cu   -7.681857   15.522927    7.681857
Cu    0.640155    3.326341    7.681857
Cu    7.041702   16.631707   12.803094
Cu   -7.681857   15.522927   12.803094
Cu    0.640155    3.326341   12.803094
Cu    7.041702   16.631707   17.924332
Cu   -7.681857   15.522927   17.924332
Cu    0.640155    3.326341   17.924332
Cu   14.723559    3.326341    2.560619
Cu   10.242476   11.087805    2.560619
Cu    5.761392    3.326341    2.560619
Cu   14.723559    3.326341    7.681857
Cu   10.242476   11.087805    7.681857
Cu    5.761392    3.326341    7.681857
Cu   14.723559    3.326341   12.803094
Cu   10.242476   11.087805   12.803094
Cu    5.761392    3.326341   12.803094
Cu   14.723559    3.326341   17.924332
Cu   10.242476   11.087805   17.924332
Cu    5.761392    3.326341   17.924332
Cu   12.162940    7.761463    2.560619
Cu    7.681857    6.652683    2.560619
Cu   10.882630    3.326341    2.560619
Cu   12.162940    7.761463    7.681857
Cu    7.681857    6.652683    7.681857
Cu   10.882630    3.326341    7.681857
Cu   12.162940    7.761463   12.803094
Cu    7.681857    6.652683   12.803094
Cu   10.882630    3.326341   12.803094
Cu   12.162940    7.761463   17.924332
Cu    7.681857    6.652683   17.924332
Cu   10.882630    3.326341   17.924332
Cu    9.602321   12.196585    2.560619
Cu    5.121238    2.217561    2.560619
Cu   16.003868    3.326341    2.560619
Cu    9.602321   12.196585    7.681857
Cu    5.121238    2.217561    7.681857
Cu   16.003868    3.326341    7.681857
Cu    9.602321   12.196585   12.803094
Cu    5.121238    2.217561   12.803094
Cu   16.003868    3.326341   12.803094
Cu    9.602321   12.196585   17.924332
Cu    5.121238    2.217561   17.924332
Cu   16.003868    3.326341   17.924332
Cu    2.560619    0.000000    0.000000
Cu    2.560619    0.000000   20.484951
Cu   -7.681857   17.740488    0.000000
Cu   -7.681857   17.740488   20.484951
Cu   -1.280309    2.217561    0.000000
Cu   -1.280309    2.217561   20.484951
Cu   19.204642    2.217561    0.000000
Cu   19.204642    2.217561   20.484951
Cu    8.962166   15.522927    0.000000
Cu    8.962166   15.522927   20.484951
Cu    2.560619    0.000000    5.121238
Cu   -7.681857   17.740488    5.121238
Cu   -1.280309    2.217561    5.121238
Cu   19.204642    2.217561    5.121238
Cu    8.962166   15.522927    5.121238
Cu    2.560619    0.000000   10.242476
Cu   -7.681857   17.740488   10.242476
Cu   -1.280309    2.217561   10.242476
Cu   19.204642    2.217561   10.242476
Cu    8.962166   15.522927   10.242476
Cu    2.560619    0.000000   15.363713
Cu   -7.681857   17.740488   15.363713
Cu   -1.280309    2.217561   15.363713
Cu   19.204642    2.217561   15.363713
Cu    8.962166   15.522927   15.363713
Cu    0.000000    4.435122    0.000000
Cu    0.000000    4.435122   20.484951
Cu    6.401547   15.522927    0.000000
Cu    6.401547   15.522927   20.484951
Cu   -6.401547   15.522927    0.000000
Cu   -6.401547   15.522927   20.484951
Cu    0.000000    4.435122    5.121238
Cu    6.401547   15.522927    5.121238
Cu   -6.401547   15.522927    5.121238
Cu    0.000000    4.435122   10.242476
Cu    6.401547   15.522927   10.242476
Cu   -6.401547   15.522927   10.242476
Cu    0.000000    4.435122   15.363713
Cu    6.401547   15.522927   15.363713
Cu   -6.401547   15.522927   15.363713
Cu   -2.560619    8.870244    0.000000
Cu   -2.560619    8.870244   20.484951
Cu    3.840928   11.087805    0.000000
Cu    3.840928   11.087805   20.484951
Cu   -1.280309   15.522927    0.000000
Cu   -1.280309   15.522927   20.484951
Cu   -2.560619    8.870244    5.121238
Cu    3.840928   11.087805    5.121238
Cu   -1.280309   15.522927    5.121238
Cu   -2.560619    8.870244   10.242476
Cu    3.840928   11.087805   10.242476
Cu   -1.280309   15.522927   10.242476
Cu   -2.560619    8.870244   15.363713
Cu    3.840928   11.087805   15.363713
Cu   -1.280309   15.522927   15.363713
Cu   -5.121238   13.305366    0.000000
Cu   -5.121238   13.305366   20.484951
Cu    1.280309    6.652683    0.000000
Cu    1.280309    6.652683   20.484951
Cu    3.840928   15.522927    0.000000
Cu    3.840928   15.522927   20.484951
Cu   -5.121238   13.305366    5.121238
Cu    1.280309    6.652683    5.121238
Cu    3.840928   15.522927    5.121238
Cu   -5.121238   13.305366   10.242476
Cu    1.280309    6.652683   10.242476
Cu    3.840928   15.522927   10.242476
Cu   -5.121238   13.305366   15.363713
Cu    1.280309    6.652683   15.363713
Cu    3.840928   15.522927   15.363713
Cu    7.681857    0.000000    0.000000
Cu    7.681857    0.000000   20.484951
Cu   -2.560619   17.740488    0.000000
Cu   -2.560619   17.740488   20.484951
Cu   -3.840928    6.652683    0.000000
Cu   -3.840928    6.652683   20.484951
Cu   16.644023    6.652683    0.000000
Cu   16.644023    6.652683   20.484951
Cu    6.401547   11.087805    0.000000
Cu    6.401547   11.087805   20.484951
Cu    7.681857    0.000000    5.121238
Cu   -2.560619   17.740488    5.121238
Cu   -3.840928    6.652683    5.121238
Cu   16.644023    6.652683    5.121238
Cu    6.401547   11.087805    5.121238
Cu    7.681857    0.000000   10.242476
Cu   -2.560619   17.740488   10.242476
Cu   -3.840928    6.652683   10.242476
Cu   16.644023    6.652683   10.242476
Cu    6.401547   11.087805   10.242476
Cu    7.681857    0.000000   15.363713
Cu   -2.560619   17.740488   15.363713
Cu   -3.840928    6.652683   15.363713
Cu   16.644023    6.652683   15.363713
Cu    6.401547   11.087805   15.363713
Cu    5.121238    4.435122    0.000000
Cu    5.121238    4.435122   20.484951
Cu   14.083404    2.217561    0.000000
Cu   14.083404    2.217561   20.484951
Cu   11.522785   11.087805    0.000000
Cu   11.522785   11.087805   20.484951
Cu    5.121238    4.435122    5.121238
Cu   14.083404    2.217561    5.121238
Cu   11.522785   11.087805    5.121238
Cu    5.121238    4.435122   10.242476
Cu   14.083404    2.217561   10.242476
Cu   11.522785   11.087805   10.242476
Cu    5.121238    4.435122   15.363713
Cu   14.083404    2.217561   15.363713
Cu   11.522785   11.087805   15.363713
Cu    2.560619    8.870244    0.000000
Cu    2.560619    8.870244   20.484951
Cu    1.280309   15.522927    0.000000
Cu    1.280309   15.522927   20.484951
Cu   -3.840928   11.087805    0.000000
Cu   -3.840928   11.087805   20.484951
Cu    2.560619    8.870244    5.121238
Cu    1.280309   15.522927    5.121238
Cu   -3.840928   11.087805    5.121238
Cu    2.560619    8.870244   10.242476
Cu    1.280309   15.522927   10.242476
Cu   -3.840928   11.087805   10.242476
Cu    2.560619    8.870244   15.363713
Cu    1.280309   15.522927   15.363713
Cu   -3.840928   11.087805   15.363713
Cu    0.000000   13.305366    0.000000
Cu    0.000000   13.305366   20.484951
Cu   -1.280309   11.087805    0.000000
Cu   -1.280309   11.087805   20.484951
Cu    1.280309   11.087805    0.000000
Cu    1.280309   11.087805   20.484951
Cu    0.000000   13.305366    5.121238
Cu   -1.280309   11.087805    5.121238
Cu    1.280309   11.087805    5.121238
Cu    0.000000   13.305366   10.242476
Cu   -1.280309   11.087805   10.242476
Cu    1.280309   11.087805   10.242476
Cu    0.000000   13.305366   15.363713
Cu   -1.280309   11.087805   15.363713
Cu    1.280309   11.087805   15.363713
Cu   12.803094    0.000000    0.000000
Cu   12.803094    0.000000   20.484951
Cu    2.560619   17.740488    0.000000
Cu    2.560619   17.740488   20.484951
Cu   -6.401547   11.087805    0.000000
Cu   -6.401547   11.087805   20.484951
Cu   14.083404   11.087805    0.000000
Cu   14.083404   11.087805   20.484951
Cu    3.840928    6.652683    0.000000
Cu    3.840928    6.652683   20.484951
Cu   12.803094    0.000000    5.121238
Cu    2.560619   17.740488    5.121238
Cu   -6.401547   11.087805    5.121238
Cu   14.083404   11.087805    5.121238
Cu    3.840928    6.652683    5.121238
Cu   12.803094    0.000000   10.242476
Cu    2.560619   17.740488   10.242476
Cu   -6.401547   11.087805   10.242476
Cu   14.083404   11.087805   10.242476
Cu    3.840928    6.652683   10.242476
Cu   12.803094    0.000000   15.363713
Cu    2.560619   17.740488   15.363713
Cu   -6.401547   11.087805   15.363713
Cu   14.083404   11.087805   15.363713
Cu    3.840928    6.652683   15.363713
Cu   10.242476    4.435122    0.000000
Cu   10.242476    4.435122   20.484951
Cu   11.522785    6.652683    0.000000
Cu   11.522785    6.652683   20.484951
Cu    8.962166    6.652683    0.000000
Cu    8.962166    6.652683   20.484951
Cu   10.242476    4.435122    5.121238
Cu   11.522785    6.652683    5.121238
Cu    8.962166    6.652683    5.121238
Cu   10.242476    4.435122   10.242476
Cu   11.522785    6.652683   10.242476
Cu    8.962166    6.652683   10.242476
Cu   10.242476    4.435122   15.363713
Cu   11.522785    6.652683   15.363713
Cu    8.962166    6.652683   15.363713
Cu    7.681857    8.870244    0.000000
Cu    7.681857    8.870244   20.484951
Cu    8.962166    2.217561    0.000000
Cu    8.962166    2.217561   20.484951
Cu   14.083404    6.652683    0.000000
Cu   14.083404    6.652683   20.484951
Cu    7.681857    8.870244    5.121238
Cu    8.962166    2.217561    5.121238
Cu   14.083404    6.652683    5.121238
Cu    7.681857    8.870244   10.242476
Cu    8.962166    2.217561   10.242476
Cu   14.083404    6.652683   10.242476
Cu    7.681857    8.870244   15.363713
Cu    8.962166    2.217561   15.363713
Cu   14.083404    6.652683   15.363713
Cu    5.121238   13.305366    0.000000
Cu    5.121238   13.305366   20.484951
Cu   -3.840928   15.522927    0.000000
Cu   -3.840928   15.522927   20.484951
Cu   -1.280309    6.652683    0.000000
Cu   -1.280309    6.652683   20.484951
Cu    5.121238   13.305366    5.121238
Cu   -3.840928   15.522927    5.121238
Cu   -1.280309    6.652683    5.121238
Cu    5.121238   13.305366   10.242476
Cu   -3.840928   15.522927   10.242476
Cu   -1.280309    6.652683   10.242476
Cu    5.121238   13.305366   15.363713
Cu   -3.840928   15.522927   15.363713
Cu   -1.280309    6.652683   15.363713
Cu   17.924332    0.000000    0.000000
Cu   17.924332    0.000000   20.484951
Cu    7.681857   17.740488    0.000000
Cu    7.681857   17.740488   20.484951
Cu   -8.962166   15.522927    0.000000
Cu   -8.962166   15.522927   20.484951
Cu   11.522785   15.522927    0.000000
Cu   11.522785   15.522927   20.484951
Cu    1.280309    2.217561    0.000000
Cu    1.280309    2.217561   20.484951
Cu   17.924332    0.000000    5.121238
Cu    7.681857   17.740488    5.121238
Cu   -8.962166   15.522927    5.121238
Cu   11.522785   15.522927    5.121238
Cu    1.280309    2.217561    5.121238
Cu   17.924332    0.000000   10.242476
Cu    7.681857   17.740488   10.242476
Cu   -8.962166   15.522927   10.242476
Cu   11.522785   15.522927   10.242476
Cu    1.280309    2.217561   10.242476
Cu   17.924332    0.000000   15.363713
Cu    7.681857   17.740488   15.363713
Cu   -8.962166   15.522927   15.363713
Cu   11.522785   15.522927   15.363713
Cu    1.280309    2.217561   15.363713
Cu   15.363713    4.435122    0.000000
Cu   15.363713    4.435122   20.484951
Cu    8.962166   11.087805    0.000000
Cu    8.962166   11.087805   20.484951
Cu    6.401547    2.217561    0.000000
Cu    6.401547    2.217561   20.484951
Cu   15.363713    4.435122    5.121238
Cu    8.962166   11.087805    5.121238
Cu    6.401547    2.217561    5.121238
Cu   15.363713    4.435122   10.242476
Cu    8.962166   11.087805   10.242476
Cu    6.401547    2.217561   10.242476
Cu   15.363713    4.435122   15.363713
Cu    8.962166   11.087805   15.363713
Cu    6.401547    2.217561   15.363713
Cu   12.803094    8.870244    0.000000
Cu   12.803094    8.870244   20.484951
Cu    6.401547    6.652683    0.000000
Cu    6.401547    6.652683   20.484951
Cu   11.522785    2.217561    0.000000
Cu   11.522785    2.217561   20.484951
Cu   12.803094    8.870244    5.121238
Cu    6.401547    6.652683    5.121238
Cu   11.522785    2.217561    5.121238
Cu   12.803094    8.870244   10.242476
Cu    6.401547    6.652683   10.242476
Cu   11.522785    2.217561   10.242476
Cu   12.803094    8.870244   15.363713
Cu    6.401547    6.652683   15.363713
Cu   11.522785    2.217561   15.363713
Cu   10.242476   13.305366    0.000000
Cu   10.242476   13.305366   20.484951
Cu    3.840928    2.217561    0.000000
Cu    3.840928    2.217561   20.484951
Cu   16.644023    2.217561    0.000000
Cu   16.644023    2.217561   20.484951
Cu   10.242476   13.305366    5.121238
Cu    3.840928    2.217561    5.121238
Cu   16.644023    2.217561    5.121238
Cu   10.242476   13.305366   10.242476
Cu    3.840928    2.217561   10.242476
Cu   16.644023    2.217561   10.242476
Cu   10.242476   13.305366   15.363713
Cu    3.840928    2.217561   15.363713
Cu   16.644023    2.217561   15.363713
