437
Cu4
Cu    0.000000    0.000000    0.000000
Cu    0.000000    0.000000   14.485048
Cu    0.000000   14.485048    0.000000
Cu    0.000000   14.485048   14.485048
Cu   14.485048    0.000000    0.000000
Cu   14.485048    0.000000   14.485048
Cu   14.485048   14.485048    0.000000
Cu   14.485048   14.485048   14.485048
Cu    0.000000    0.000000    3.621262
Cu    0.000000   14.485048    3.621262
Cu   14.485048    0.000000    3.621262
Cu   14.485048   14.485048    3.621262
Cu    0.000000    0.000000    7.242524
Cu    0.000000   14.485048    7.242524
Cu   14.485048    0.000000    7.242524
Cu   14.485048   14.485048    7.242524
Cu    0.000000    0.000000   10.863787
Cu    0.000000   14.485048   10.863787
Cu   14.485048    0.000000   10.863787
Cu   14.485048   14.485048   10.863787
Cu    0.000000    3.621262    0.000000
Cu    0.000000    3.621262   14.485048
Cu   14.485048    3.621262    0.000000
Cu   14.485048    3.621262   14.485048
Cu    0.000000    3.621262    3.621262
Cu   14.485048    3.621262    3.621262
Cu    0.000000    3.621262    7.242524
Cu   14.485048    3.621262    7.242524
Cu    0.000000    3.621262   10.863787
Cu   14.485048    3.621262   10.863787
Cu    0.000000    7.242524    0.000000
Cu    0.000000    7.242524   14.485048
Cu   14.485048    7.242524    0.000000
Cu   14.485048    7.242524   14.485048
Cu    0.000000    7.242524    3.621262
Cu   14.485048    7.242524    3.621262
Cu    0.000000    7.242524    7.242524
Cu   14.485048    7.242524    7.242524
Cu    0.000000    7.242524   10.863787
Cu   14.485048    7.242524   10.863787
Cu    0.000000   10.863787    0.000000
Cu    0.000000   10.863787   14.485048
Cu   14.485048   10.863787    0.000000
Cu   14.485048   10.863787   14.485048
Cu    0.000000   10.863787    3.621262
Cu   14.485048   10.863787    3.621262
Cu    0.000000   10.863787    7.242524
Cu   14.485048   10.863787    7.242524
Cu    0.000000   10.863787   10.863787
Cu   14.485048   10.863787   10.863787
Cu    3.621262    0.000000    0.000000
Cu    3.621262    0.000000   14.485048
Cu    3.621262   14.485048    0.000000
Cu    3.621262   14.485048   14.485048
Cu    3.621262    0.000000    3.621262
Cu    3.621262   14.485048    3.621262
Cu    3.621262    0.000000    7.242524
Cu    3.621262   14.485048    7.242524
Cu    3.621262    0.000000   10.863787
Cu    3.621262   14.485048   10.863787
Cu    3.621262    3.621262    0.000000
Cu    3.621262    3.621262   14.485048
Cu    3.621262    3.621262    3.621262
Cu    3.621262    3.621262    7.242524
Cu    3.621262    3.621262   10.863787
Cu    3.621262    7.242524    0.000000
Cu    3.621262    7.242524   14.485048
Cu    3.621262    7.242524    3.621262
Cu    3.621262    7.242524    7.242524
Cu    3.621262    7.242524   10.863787
Cu    3.621262   10.863787    0.000000
Cu    3.621262   10.863787   14.485048
Cu    3.621262   10.863787    3.621262
Cu    3.621262   10.863787    7.242524
Cu    3.621262   10.863787   10.863787
Cu    7.242524    0.000000    0.000000
Cu    7.242524    0.000000   14.485048
Cu    7.242524   14.485048    0.000000
Cu    7.242524   14.485048   14.485048
Cu    7.242524    0.000000    3.621262
Cu    7.242524   14.485048    3.621262
Cu    7.242524    0.000000    7.242524
Cu    7.242524   14.485048    7.242524
Cu    7.242524    0.000000   10.863787
Cu    7.242524   14.485048   10.863787
Cu    7.242524    3.621262    0.000000
Cu    7.242524    3.621262   14.485048
Cu    7.242524    3.621262    3.621262
Cu    7.242524    3.621262    7.242524
Cu    7.242524    3.621262   10.863787
Cu    7.242524    7.242524    0.000000
Cu    7.242524    7.242524   14.485048
Cu    7.242524    7.242524    3.621262
 N    7.242524    7.242524    7.242524
Cu    7.242524    7.242524   10.863787
Cu    7.242524   10.863787    0.000000
Cu    7.242524   10.863787   14.485048
Cu    7.242524   10.863787    3.621262
Cu    7.242524   10.863787    7.242524
Cu    7.242524   10.863787   10.863787
Cu   10.863787    0.000000    0.000000
Cu   10.863787    0.000000   14.485048
Cu   10.863787   14.485048    0.000000
Cu   10.863787   14.485048   14.485048
Cu   10.863787    0.000000    3.621262
Cu   10.863787   14.485048    3.621262
Cu   10.863787    0.000000    7.242524
Cu   10.863787   14.485048    7.242524
Cu   10.863787    0.000000   10.863787
Cu   10.863787   14.485048   10.863787
Cu   10.863787    3.621262    0.000000
Cu   10.863787    3.621262   14.485048
Cu   10.863787    3.621262    3.621262
Cu   10.863787    3.621262    7.242524
Cu   10.863787    3.621262   10.863787
Cu   10.863787    7.242524    0.000000
Cu   10.863787    7.242524   14.485048
Cu   10.863787    7.242524    3.621262
Cu   10.863787    7.242524    7.242524
Cu   10.863787    7.242524   10.863787
Cu   10.863787   10.863787    0.000000
Cu   10.863787   10.863787   14.485048
Cu   10.863787   10.863787    3.621262
Cu   10.863787   10.863787    7.242524
Cu   10.863787   10.863787   10.863787
Cu    0.000000    1.810631    1.810631
Cu   14.485048    1.810631    1.810631
Cu    0.000000    1.810631    5.431893
Cu   14.485048    1.810631    5.431893
Cu    0.000000    1.810631    9.053155
Cu   14.485048    1.810631    9.053155
Cu    0.000000    1.810631   12.674417
Cu   14.485048    1.810631   12.674417
Cu    0.000000    5.431893    1.810631
Cu   14.485048    5.431893    1.810631
Cu    0.000000    5.431893    5.431893
Cu   14.485048    5.431893    5.431893
Cu    0.000000    5.431893    9.053155
Cu   14.485048    5.431893    9.053155
Cu    0.000000    5.431893   12.674417
Cu   14.485048    5.431893   12.674417
Cu    0.000000    9.053155    1.810631
Cu   14.485048    9.053155    1.810631
Cu    0.000000    9.053155    5.431893
Cu   14.485048    9.053155    5.431893
Cu    0.000000    9.053155    9.053155
Cu   14.485048    9.053155    9.053155
Cu    0.000000    9.053155   12.674417
Cu   14.485048    9.053155   12.674417
Cu    0.000000   12.674417    1.810631
Cu   14.485048   12.674417    1.810631
Cu    0.000000   12.674417    5.431893
Cu   14.485048   12.674417    5.431893
Cu    0.000000   12.674417    9.053155
Cu   14.485048   12.674417    9.053155
Cu    0.000000   12.674417   12.674417
Cu   14.485048   12.674417   12.674417
Cu    3.621262    1.810631    1.810631
Cu    3.621262    1.810631    5.431893
Cu    3.621262    1.810631    9.053155
Cu    3.621262    1.810631   12.674417
Cu    3.621262    5.431893    1.810631
Cu    3.621262    5.431893    5.431893
Cu    3.621262    5.431893    9.053155
Cu    3.621262    5.431893   12.674417
Cu    3.621262    9.053155    1.810631
Cu    3.621262    9.053155    5.431893
Cu    3.621262    9.053155    9.053155
Cu    3.621262    9.053155   12.674417
Cu    3.621262   12.674417    1.810631
Cu    3.621262   12.674417    5.431893
Cu    3.621262   12.674417    9.053155
Cu    3.621262   12.674417   12.674417
Cu    7.242524    1.810631    1.810631
Cu    7.242524    1.810631    5.431893
Cu    7.242524    1.810631    9.053155
Cu    7.242524    1.810631   12.674417
Cu    7.242524    5.431893    1.810631
Cu    7.242524    5.431893    5.431893
Cu    7.242524    5.431893    9.053155
Cu    7.242524    5.431893   12.674417
Cu    7.242524    9.053155    1.810631
Cu    7.242524    9.053155    5.431893
Cu    7.242524    9.053155    9.053155
Cu    7.242524    9.053155   12.674417
Cu    7.242524   12.674417    1.810631
Cu    7.242524   12.674417    5.431893
Cu    7.242524   12.674417    9.053155
Cu    7.242524   12.674417   12.674417
Cu   10.863787    1.810631    1.810631
Cu   10.863787    1.810631    5.431893
Cu   10.863787    1.810631    9.053155
Cu   10.863787    1.810631   12.674417
Cu   10.863787    5.431893    1.810631
Cu   10.863787    5.431893    5.431893
Cu   10.863787    5.431893    9.053155
Cu   10.863787    5.431893   12.674417
Cu   10.863787    9.053155    1.810631
Cu   10.863787    9.053155    5.431893
Cu   10.863787    9.053155    9.053155
Cu   10.863787    9.053155   12.674417
Cu   10.863787   12.674417    1.810631
Cu   10.863787   12.674417    5.431893
Cu   10.863787   12.674417    9.053155
Cu   10.863787   12.674417   12.674417
Cu    1.810631    0.000000    1.810631
Cu    1.810631   14.485048    1.810631
Cu    1.810631    0.000000    5.431893
Cu    1.810631   14.485048    5.431893
Cu    1.810631    0.000000    9.053155
Cu    1.810631   14.485048    9.053155
Cu    1.810631    0.000000   12.674417
Cu    1.810631   14.485048   12.674417
Cu    1.810631    3.621262    1.810631
Cu    1.810631    3.621262    5.431893
Cu    1.810631    3.621262    9.053155
Cu    1.810631    3.621262   12.674417
Cu    1.810631    7.242524    1.810631
Cu    1.810631    7.242524    5.431893
Cu    1.810631    7.242524    9.053155
Cu    1.810631    7.242524   12.674417
Cu    1.810631   10.863787    1.810631
Cu    1.810631   10.863787    5.431893
Cu    1.810631   10.863787    9.053155
Cu    1.810631   10.863787   12.674417
Cu    5.431893    0.000000    1.810631
Cu    5.431893   14.485048    1.810631
Cu    5.431893    0.000000    5.431893
Cu    5.431893   14.485048    5.431893
Cu    5.431893    0.000000    9.053155
Cu    5.431893   14.485048    9.053155
Cu    5.431893    0.000000   12.674417
Cu    5.431893   14.485048   12.674417
Cu    5.431893    3.621262    1.810631
Cu    5.431893    3.621262    5.431893
Cu    5.431893    3.621262    9.053155
Cu    5.431893    3.621262   12.674417
Cu    5.431893    7.242524    1.810631
Cu    5.431893    7.242524    5.431893
Cu    5.431893    7.242524    9.053155
Cu    5.431893    7.242524   12.674417
Cu    5.431893   10.863787    1.810631
Cu    5.431893   10.863787    5.431893
Cu    5.431893   10.863787    9.053155
Cu    5.431893   10.863787   12.674417
Cu    9.053155    0.000000    1.810631
Cu    9.053155   14.485048    1.810631
Cu    9.053155    0.000000    5.431893
Cu    9.053155   14.485048    5.431893
Cu    9.053155    0.000000    9.053155
Cu    9.053155   14.485048    9.053155
Cu    9.053155    0.000000   12.674417
Cu    9.053155   14.485048   12.674417
Cu    9.053155    3.621262    1.810631
Cu    9.053155    3.621262    5.431893
Cu    9.053155    3.621262    9.053155
Cu    9.053155    3.621262   12.674417
Cu    9.053155    7.242524    1.810631
Cu    9.053155    7.242524    5.431893
Cu    9.053155    7.242524    9.053155
Cu    9.053155    7.242524   12.674417
Cu    9.053155   10.863787    1.810631
Cu    9.053155   10.863787    5.431893
Cu    9.053155   10.863787    9.053155
Cu    9.053155   10.863787   12.674417
Cu   12.674417    0.000000    1.810631
Cu   12.674417   14.485048    1.810631
Cu   12.674417    0.000000    5.431893
Cu   12.674417   14.485048    5.431893
Cu   12.674417    0.000000    9.053155
Cu   12.674417   14.485048    9.053155
Cu   12.674417    0.000000   12.674417
Cu   12.674417   14.485048   12.674417
Cu   12.674417    3.621262    1.810631
Cu   12.674417    3.621262    5.431893
Cu   12.674417    3.621262    9.053155
Cu   12.674417    3.621262   12.674417
Cu   12.674417    7.242524    1.810631
Cu   12.674417    7.242524    5.431893
Cu   12.674417    7.242524    9.053155
Cu   12.674417    7.242524   12.674417
Cu   12.674417   10.863787    1.810631
Cu   12.674417   10.863787    5.431893
Cu   12.674417   10.863787    9.053155
Cu   12.674417   10.863787   12.674417
Cu    1.810631    1.810631    0.000000
Cu    1.810631    1.810631   14.485048
Cu    1.810631    1.810631    3.621262
Cu    1.810631    1.810631    7.242524
Cu    1.810631    1.810631   10.863787
Cu    1.810631    5.431893    0.000000
Cu    1.810631    5.431893   14.485048
Cu    1.810631    5.431893    3.621262
Cu    1.810631    5.431893    7.242524
Cu    1.810631    5.431893   10.863787
Cu    1.810631    9.053155    0.000000
Cu    1.810631    9.053155   14.485048
Cu    1.810631    9.053155    3.621262
Cu    1.810631    9.053155    7.242524
Cu    1.810631    9.053155   10.863787
Cu    1.810631   12.674417    0.000000
Cu    1.810631   12.674417   14.485048
Cu    1.810631   12.674417    3.621262
Cu    1.810631   12.674417    7.242524
Cu    1.810631   12.674417   10.863787
Cu    5.431893    1.810631    0.000000
Cu    5.431893    1.810631   14.485048
Cu    5.431893    1.810631    3.621262
Cu    5.431893    1.810631    7.242524
Cu    5.431893    1.810631   10.863787
Cu    5.431893    5.431893    0.000000
Cu    5.431893    5.431893   14.485048
Cu    5.431893    5.431893    3.621262
Cu    5.431893    5.431893    7.242524
Cu    5.431893    5.431893   10.863787
Cu    5.431893    9.053155    0.000000
Cu    5.431893    9.053155   14.485048
Cu    5.431893    9.053155    3.621262
Cu    5.431893    9.053155    7.242524
Cu    5.431893    9.053155   10.863787
Cu    5.431893   12.674417    0.000000
Cu    5.431893   12.674417   14.485048
Cu    5.431893   12.674417    3.621262
Cu    5.431893   12.674417    7.242524
Cu    5.431893   12.674417   10.863787
Cu    9.053155    1.810631    0.000000
Cu    9.053155    1.810631   14.485048
Cu    9.053155    1.810631    3.621262
Cu    9.053155    1.810631    7.242524
Cu    9.053155    1.810631   10.863787
Cu    9.053155    5.431893    0.000000
Cu    9.053155    5.431893   14.485048
Cu    9.053155    5.431893    3.621262
Cu    9.053155    5.431893    7.242524
Cu    9.053155    5.431893   10.863787
Cu    9.053155    9.053155    0.000000
Cu    9.053155    9.053155   14.485048
Cu    9.053155    9.053155    3.621262
Cu    9.053155    9.053155    7.242524
Cu    9.053155    9.053155   10.863787
Cu    9.053155   12.674417    0.000000
Cu    9.053155   12.674417   14.485048
Cu    9.053155   12.674417    3.621262
Cu    9.053155   12.674417    7.242524
Cu    9.053155   12.674417   10.863787
Cu   12.674417    1.810631    0.000000
Cu   12.674417    1.810631   14.485048
Cu   12.674417    1.810631    3.621262
Cu   12.674417    1.810631    7.242524
Cu   12.674417    1.810631   10.863787
Cu   12.674417    5.431893    0.000000
Cu   12.674417    5.431893   14.485048
Cu   12.674417    5.431893    3.621262
Cu   12.674417    5.431893    7.242524
Cu   12.674417    5.431893   10.863787
Cu   12.674417    9.053155    0.000000
Cu   12.674417    9.053155   14.485048
Cu   12.674417    9.053155    3.621262
Cu   12.674417    9.053155    7.242524
Cu   12.674417    9.053155   10.863787
Cu   12.674417   12.674417    0.000000
Cu   12.674417   12.674417   14.485048
Cu   12.674417   12.674417    3.621262
Cu   12.674417   12.674417    7.242524
Cu   12.674417   12.674417   10.863787
Cu   -1.810631    3.621262    5.431893
Cu   -1.810631    3.621262    9.053155
Cu   -1.810631    5.431893    3.621262
Cu   -1.810631    5.431893    7.242524
Cu   -1.810631    5.431893   10.863787
Cu   -1.810631    7.242524    5.431893
Cu   -1.810631    7.242524    9.053155
Cu   -1.810631    9.053155    3.621262
Cu   -1.810631    9.053155    7.242524
Cu   -1.810631    9.053155   10.863787
Cu   -1.810631   10.863787    5.431893
Cu   -1.810631   10.863787    9.053155
Cu    3.621262   -1.810631    5.431893
Cu    3.621262   -1.810631    9.053155
Cu    3.621262    5.431893   -1.810631
Cu    3.621262    5.431893   16.295679
Cu    3.621262    9.053155   -1.810631
Cu    3.621262    9.053155   16.295679
Cu    3.621262   16.295679    5.431893
Cu    3.621262   16.295679    9.053155
Cu    5.431893   -1.810631    3.621262
Cu    5.431893   -1.810631    7.242524
Cu    5.431893   -1.810631   10.863787
Cu    5.431893    3.621262   -1.810631
Cu    5.431893    3.621262   16.295679
Cu    5.431893    7.242524   -1.810631
Cu    5.431893    7.242524   16.295679
Cu    5.431893   10.863787   -1.810631
Cu    5.431893   10.863787   16.295679
Cu    5.431893   16.295679    3.621262
Cu    5.431893   16.295679    7.242524
Cu    5.431893   16.295679   10.863787
Cu    9.053155   -1.810631    3.621262
Cu    7.242524   -1.810631    5.431893
Cu    9.053155   -1.810631    7.242524
Cu    7.242524   -1.810631    9.053155
Cu    9.053155   -1.810631   10.863787
Cu    9.053155    3.621262   -1.810631
Cu    9.053155    3.621262   16.295679
Cu    7.242524    5.431893   -1.810631
Cu    7.242524    5.431893   16.295679
Cu    9.053155    7.242524   -1.810631
Cu    9.053155    7.242524   16.295679
Cu    7.242524    9.053155   -1.810631
Cu    7.242524    9.053155   16.295679
Cu    9.053155   10.863787   -1.810631
Cu    9.053155   10.863787   16.295679
Cu    9.053155   16.295679    3.621262
Cu    7.242524   16.295679    5.431893
Cu    9.053155   16.295679    7.242524
Cu    7.242524   16.295679    9.053155
Cu    9.053155   16.295679   10.863787
Cu   10.863787   -1.810631    5.431893
Cu   10.863787   -1.810631    9.053155
Cu   10.863787    5.431893   -1.810631
Cu   10.863787    5.431893   16.295679
Cu   10.863787    9.053155   -1.810631
Cu   10.863787    9.053155   16.295679
Cu   10.863787   16.295679    5.431893
Cu   10.863787   16.295679    9.053155
Cu   16.295679    3.621262    5.431893
Cu   16.295679    3.621262    9.053155
Cu   16.295679    5.431893    3.621262
Cu   16.295679    5.431893    7.242524
Cu   16.295679    5.431893   10.863787
Cu   16.295679    7.242524    5.431893
Cu   16.295679    7.242524    9.053155
Cu   16.295679    9.053155    3.621262
Cu   16.295679    9.053155    7.242524
Cu   16.295679    9.053155   10.863787
Cu   16.295679   10.863787    5.431893
Cu   16.295679   10.863787    9.053155
